@<TRIPOS>MOLECULE
3-Chloro-5-(3-dimethylaminopropyl)-10,11-dihydro-5H-dibenz(b,f)azepine hydrochloride
 47 48 0 0 0
SMALL
GASTEIGER

@<TRIPOS>ATOM
      1 CL          6.7853    2.4103    2.0499 Cl      1  UNL1        0.0000
      2 CL         -0.8409    3.3387    4.2740 Cl      2  UNL2       -0.0835
      3 N           2.6029   -0.1127    5.8348 N.pl3   2  UNL2       -0.2996
      4 N           6.3170    2.3044    5.0377 N.4     2  UNL2        0.3760
      5 C           0.8963    1.5119    5.2216 C.ar    2  UNL2       -0.0217
      6 C          -0.1555    2.3457    5.5296 C.ar    2  UNL2        0.0428
      7 C          -0.6589    2.4197    6.8075 C.ar    2  UNL2       -0.0430
      8 C          -0.0454    1.6496    7.7634 C.ar    2  UNL2       -0.0554
      9 C           1.6249    0.1239    8.7389 C.3     2  UNL2       -0.0219
     10 C           2.9342   -0.6376    8.5619 C.3     2  UNL2       -0.0219
     11 C           2.7619   -3.1073    7.9822 C.ar    2  UNL2       -0.0568
     12 C           2.5461   -4.1261    7.0722 C.ar    2  UNL2       -0.0614
     13 C           2.3248   -3.8172    5.7595 C.ar    2  UNL2       -0.0600
     14 C           2.3283   -2.5075    5.3470 C.ar    2  UNL2       -0.0401
     15 C           2.5484   -1.4775    6.2598 C.ar    2  UNL2        0.0372
     16 C           2.7657   -1.7632    7.6060 C.ar    2  UNL2       -0.0257
     17 C           1.0456    0.8252    7.5307 C.ar    2  UNL2       -0.0256
     18 C           1.5198    0.7392    6.1985 C.ar    2  UNL2        0.0385
     19 C           3.2531    0.0998    4.5346 C.3     2  UNL2        0.0156
     20 C           4.0835    1.3518    4.4747 C.3     2  UNL2       -0.0518
     21 C           5.3484    1.2133    5.3108 C.3     2  UNL2       -0.0899
     22 C           7.6273    2.0282    5.6717 C.3     2  UNL2       -0.1036
     23 C           5.8178    3.6399    5.4334 C.3     2  UNL2       -0.1036
     24 H           1.1181    1.4629    4.3479 H       2  UNL2        0.0651
     25 H          -1.3894    3.0204    6.9538 H       2  UNL2        0.0632
     26 H          -0.3573    1.7124    8.5982 H       2  UNL2        0.0621
     27 H           1.7082    0.7658    9.3646 H       2  UNL2        0.0317
     28 H           0.9264   -0.4561    9.1556 H       2  UNL2        0.0317
     29 H           3.5976    0.0258    8.1941 H       2  UNL2        0.0317
     30 H           3.2179   -0.9379    9.4482 H       2  UNL2        0.0317
     31 H           2.9087   -3.2011    8.7793 H       2  UNL2        0.0621
     32 H           2.5882   -4.9651    7.4137 H       2  UNL2        0.0618
     33 H           2.1928   -4.5520    5.1004 H       2  UNL2        0.0618
     34 H           2.1578   -2.2803    4.4733 H       2  UNL2        0.0636
     35 H           3.8456   -0.6454    4.3618 H       2  UNL2        0.0467
     36 H           2.5791    0.0947    3.7904 H       2  UNL2        0.0467
     37 H           4.3174    1.4887    3.5117 H       2  UNL2        0.0262
     38 H           3.5484    2.1168    4.7799 H       2  UNL2        0.0262
     39 H           5.8506    0.4130    5.1143 H       2  UNL2        0.0059
     40 H           5.1412    1.2305    6.2710 H       2  UNL2        0.0059
     41 H           7.9178    1.1961    5.3373 H       2  UNL2        0.0023
     42 H           7.5234    1.9964    6.7169 H       2  UNL2        0.0023
     43 H           8.1014    2.7708    5.4906 H       2  UNL2        0.0023
     44 H           5.0207    3.8723    4.9192 H       2  UNL2        0.0023
     45 H           5.5656    3.5711    6.3546 H       2  UNL2        0.0023
     46 H           6.4839    4.2939    5.2676 H       2  UNL2        0.0023
     47 H           6.3682    2.3492    4.1388 H       2  UNL2       -0.0827
@<TRIPOS>BOND
     1    37    20    1
     2    36    19    1
     3    47     4    1
     4     2     6    1
     5    24     5    1
     6    35    19    1
     7    34    14    1
     8    20    19    1
     9    20    38    1
    10    20    21    1
    11    19     3    1
    12    44    23    1
    13     4    21    1
    14     4    23    1
    15     4    22    1
    16    33    13    1
    17    39    21    1
    18     5     6   ar
    19     5    18   ar
    20    46    23    1
    21    21    40    1
    22    41    22    1
    23    14    13   ar
    24    14    15   ar
    25    23    45    1
    26    43    22    1
    27     6     7   ar
    28    22    42    1
    29    13    12   ar
    30     3    18    1
    31     3    15    1
    32    18    17   ar
    33    15    16   ar
    34     7    25    1
    35     7     8   ar
    36    12    32    1
    37    12    11   ar
    38    17     8   ar
    39    17     9    1
    40    16    11   ar
    41    16    10    1
    42     8    26    1
    43    11    31    1
    44    29    10    1
    45    10     9    1
    46    10    30    1
    47     9    28    1
    48     9    27    1
